/*--------------------------------*- C++ -*----------------------------------*\
| =========                 |                                                 |
| \\      /  F ield         | OpenFOAM: The Open Source CFD Toolbox           |
|  \\    /   O peration     | Version:  2.1.0                                 |
|   \\  /    A nd           | Web:      www.OpenFOAM.org                      |
|    \\/     M anipulation  |                                                 |
\*---------------------------------------------------------------------------*/
FoamFile
{
    version     2.0;
    format      ascii;
    class       dictionary;
    location    "constant";
    object      foam.dat;
}
// * * * * * * * * * * * * * * * * * * * * * * * * * * * * * * * * * * * * * //

O2
{
    specie
    {
        nMoles          1;
        molWeight       31.9988;
    }
    thermodynamics
    {
        Tlow            200;
        Thigh           6000;
        Tcommon         1000;
        highCpCoeffs    ( 6.88364948E+00 -3.15144950E-03 5.69327172E-07 3.22339418E-10 -4.09344755E-14 -2.93944454E+03 -1.56432997E+01 );
        lowCpCoeffs     ( 3.53479612E+00 -9.57406360E-04 4.04514674E-06 -3.32687781E-09 8.57406384E-13 -1.04038545E+03 4.61477185E+00 );
    }
    transport
    {
        As              1.67212e-06;
        Ts              170.672;
    }
        elements
    {
        O              2;
    }
}

N2
{
    specie
    {
        nMoles          1;
        molWeight       28.0134;
    }
    thermodynamics
    {
        Tlow            200;
        Thigh           6000;
        Tcommon         1000;
        highCpCoeffs    ( 2.95257637E+00  1.39690040E-03 -4.92631603E-07  7.86010195E-11 -4.60755204E-15 -9.23948688E+02 5.87188762E+00 );
        lowCpCoeffs     ( 3.53100528E+00 -1.23660988E-04 -5.02999433E-07  2.43530612E-09 -1.40881235E-12 -1.04697628E+03 2.96747038E+00 );
    }
    transport
    {
        As              1.67212e-06;
        Ts              170.672;
    }
    elements
    {
        N              2;
    }
}

AR
{
    specie
    {
        molWeight       39.948;
    }
    thermodynamics
    {
        Tlow            200;
        Thigh           6000;
        Tcommon         1000;
        highCpCoeffs    ( 2.49989176 1.56134837e-07 -7.76108557e-11 1.52928085e-14 -1.05304493e-18 -745.328403 4.38029835 );
        lowCpCoeffs     ( 2.49988611 2.1303796e-07 8.97320772e-10 -2.31395752e-12 1.30201393e-15 -745.354481 4.38024367 );
    }
    transport
    {
        As              1.67212e-06;
        Ts              170.672;
    }
    elements
    {
        Ar              1;
    }
}


// ************************************************************************* //
