/*--------------------------------*- C++ -*----------------------------------*\
| =========                 |                                                 |
| \\      /  F ield         | OpenFOAM: The Open Source CFD Toolbox           |
|  \\    /   O peration     | Version:  2.4.0                                 |
|   \\  /    A nd           | Web:      www.OpenFOAM.org                      |
|    \\/     M anipulation  |                                                 |
\*---------------------------------------------------------------------------*/

FoamFile
{
    version     2.0;
    format      ascii;
    location    "";
    class       vectorField;
    object      steelCloudPositions;
}

// * * * * * * * * * * * * * * * * * * * * * * * * * * * * * * * * * * * * * //
(
(0.006 0.006 0.006)
(0.006 0.018 0.006)
(0.006 0.03 0.006)
(0.006 0.042 0.006)
(0.006 0.054 0.006)
(0.006 0.066 0.006)
(0.006 0.006 0.018)
(0.006 0.018 0.018)
(0.006 0.03 0.018)
(0.006 0.042 0.018)
(0.006 0.054 0.018)
(0.006 0.066 0.018)
(0.006 0.006 0.03)
(0.006 0.018 0.03)
(0.006 0.03 0.03)
(0.006 0.042 0.03)
(0.006 0.054 0.03)
(0.006 0.066 0.03)
(0.006 0.006 0.042)
(0.006 0.018 0.042)
(0.006 0.03 0.042)
(0.006 0.042 0.042)
(0.006 0.054 0.042)
(0.006 0.066 0.042)
(0.006 0.006 0.054)
(0.006 0.018 0.054)
(0.006 0.03 0.054)
(0.006 0.042 0.054)
(0.006 0.054 0.054)
(0.006 0.066 0.054)
(0.006 0.006 0.066)
(0.006 0.018 0.066)
(0.006 0.03 0.066)
(0.006 0.042 0.066)
(0.006 0.054 0.066)
(0.006 0.066 0.066)
(0.018 0.006 0.006)
(0.018 0.018 0.006)
(0.018 0.03 0.006)
(0.018 0.042 0.006)
(0.018 0.054 0.006)
(0.018 0.066 0.006)
(0.018 0.006 0.018)
(0.018 0.018 0.018)
(0.018 0.03 0.018)
(0.018 0.042 0.018)
(0.018 0.054 0.018)
(0.018 0.066 0.018)
(0.018 0.006 0.03)
(0.018 0.018 0.03)
(0.018 0.03 0.03)
(0.018 0.042 0.03)
(0.018 0.054 0.03)
(0.018 0.066 0.03)
(0.018 0.006 0.042)
(0.018 0.018 0.042)
(0.018 0.03 0.042)
(0.018 0.042 0.042)
(0.018 0.054 0.042)
(0.018 0.066 0.042)
(0.018 0.006 0.054)
(0.018 0.018 0.054)
(0.018 0.03 0.054)
(0.018 0.042 0.054)
(0.018 0.054 0.054)
(0.018 0.066 0.054)
(0.018 0.006 0.066)
(0.018 0.018 0.066)
(0.018 0.03 0.066)
(0.018 0.042 0.066)
(0.018 0.054 0.066)
(0.018 0.066 0.066)
(0.03 0.006 0.006)
(0.03 0.018 0.006)
(0.03 0.03 0.006)
(0.03 0.042 0.006)
(0.03 0.054 0.006)
(0.03 0.066 0.006)
(0.03 0.006 0.018)
(0.03 0.018 0.018)
(0.03 0.03 0.018)
(0.03 0.042 0.018)
(0.03 0.054 0.018)
(0.03 0.066 0.018)
(0.03 0.006 0.03)
(0.03 0.018 0.03)
(0.03 0.03 0.03)
(0.03 0.042 0.03)
(0.03 0.054 0.03)
(0.03 0.066 0.03)
(0.03 0.006 0.042)
(0.03 0.018 0.042)
(0.03 0.03 0.042)
(0.03 0.042 0.042)
(0.03 0.054 0.042)
(0.03 0.066 0.042)
(0.03 0.006 0.054)
(0.03 0.018 0.054)
(0.03 0.03 0.054)
(0.03 0.042 0.054)
(0.03 0.054 0.054)
(0.03 0.066 0.054)
(0.03 0.006 0.066)
(0.03 0.018 0.066)
(0.03 0.03 0.066)
(0.03 0.042 0.066)
(0.03 0.054 0.066)
(0.03 0.066 0.066)
(0.042 0.006 0.006)
(0.042 0.018 0.006)
(0.042 0.03 0.006)
(0.042 0.042 0.006)
(0.042 0.054 0.006)
(0.042 0.066 0.006)
(0.042 0.006 0.018)
(0.042 0.018 0.018)
(0.042 0.03 0.018)
(0.042 0.042 0.018)
(0.042 0.054 0.018)
(0.042 0.066 0.018)
(0.042 0.006 0.03)
(0.042 0.018 0.03)
(0.042 0.03 0.03)
(0.042 0.042 0.03)
(0.042 0.054 0.03)
(0.042 0.066 0.03)
(0.042 0.006 0.042)
(0.042 0.018 0.042)
(0.042 0.03 0.042)
(0.042 0.042 0.042)
(0.042 0.054 0.042)
(0.042 0.066 0.042)
(0.042 0.006 0.054)
(0.042 0.018 0.054)
(0.042 0.03 0.054)
(0.042 0.042 0.054)
(0.042 0.054 0.054)
(0.042 0.066 0.054)
(0.042 0.006 0.066)
(0.042 0.018 0.066)
(0.042 0.03 0.066)
(0.042 0.042 0.066)
(0.042 0.054 0.066)
(0.042 0.066 0.066)
(0.054 0.006 0.006)
(0.054 0.018 0.006)
(0.054 0.03 0.006)
(0.054 0.042 0.006)
(0.054 0.054 0.006)
(0.054 0.066 0.006)
(0.054 0.006 0.018)
(0.054 0.018 0.018)
(0.054 0.03 0.018)
(0.054 0.042 0.018)
(0.054 0.054 0.018)
(0.054 0.066 0.018)
(0.054 0.006 0.03)
(0.054 0.018 0.03)
(0.054 0.03 0.03)
(0.054 0.042 0.03)
(0.054 0.054 0.03)
(0.054 0.066 0.03)
(0.054 0.006 0.042)
(0.054 0.018 0.042)
(0.054 0.03 0.042)
(0.054 0.042 0.042)
(0.054 0.054 0.042)
(0.054 0.066 0.042)
(0.054 0.006 0.054)
(0.054 0.018 0.054)
(0.054 0.03 0.054)
(0.054 0.042 0.054)
(0.054 0.054 0.054)
(0.054 0.066 0.054)
(0.054 0.006 0.066)
(0.054 0.018 0.066)
(0.054 0.03 0.066)
(0.054 0.042 0.066)
(0.054 0.054 0.066)
(0.054 0.066 0.066)
(0.066 0.006 0.006)
(0.066 0.018 0.006)
(0.066 0.03 0.006)
(0.066 0.042 0.006)
(0.066 0.054 0.006)
(0.066 0.066 0.006)
(0.066 0.006 0.018)
(0.066 0.018 0.018)
(0.066 0.03 0.018)
(0.066 0.042 0.018)
(0.066 0.054 0.018)
(0.066 0.066 0.018)
(0.066 0.006 0.03)
(0.066 0.018 0.03)
(0.066 0.03 0.03)
(0.066 0.042 0.03)
(0.066 0.054 0.03)
(0.066 0.066 0.03)
(0.066 0.006 0.042)
(0.066 0.018 0.042)
(0.066 0.03 0.042)
(0.066 0.042 0.042)
(0.066 0.054 0.042)
(0.066 0.066 0.042)
(0.066 0.006 0.054)
(0.066 0.018 0.054)
(0.066 0.03 0.054)
(0.066 0.042 0.054)
(0.066 0.054 0.054)
(0.066 0.066 0.054)
(0.066 0.006 0.066)
(0.066 0.018 0.066)
(0.066 0.03 0.066)
(0.066 0.042 0.066)
(0.066 0.054 0.066)
(0.066 0.066 0.066)
(0.078 0.006 0.006)
(0.078 0.018 0.006)
(0.078 0.03 0.006)
(0.078 0.042 0.006)
(0.078 0.054 0.006)
(0.078 0.066 0.006)
(0.078 0.006 0.018)
(0.078 0.018 0.018)
(0.078 0.03 0.018)
(0.078 0.042 0.018)
(0.078 0.054 0.018)
(0.078 0.066 0.018)
(0.078 0.006 0.03)
(0.078 0.018 0.03)
(0.078 0.03 0.03)
(0.078 0.042 0.03)
(0.078 0.054 0.03)
(0.078 0.066 0.03)
(0.078 0.006 0.042)
(0.078 0.018 0.042)
(0.078 0.03 0.042)
(0.078 0.042 0.042)
(0.078 0.054 0.042)
(0.078 0.066 0.042)
(0.078 0.006 0.054)
(0.078 0.018 0.054)
(0.078 0.03 0.054)
(0.078 0.042 0.054)
(0.078 0.054 0.054)
(0.078 0.066 0.054)
(0.078 0.006 0.066)
(0.078 0.018 0.066)
(0.078 0.03 0.066)
(0.078 0.042 0.066)
(0.078 0.054 0.066)
(0.078 0.066 0.066)
(0.09 0.006 0.006)
(0.09 0.018 0.006)
(0.09 0.03 0.006)
(0.09 0.042 0.006)
(0.09 0.054 0.006)
(0.09 0.066 0.006)
(0.09 0.006 0.018)
(0.09 0.018 0.018)
(0.09 0.03 0.018)
(0.09 0.042 0.018)
(0.09 0.054 0.018)
(0.09 0.066 0.018)
(0.09 0.006 0.03)
(0.09 0.018 0.03)
(0.09 0.03 0.03)
(0.09 0.042 0.03)
(0.09 0.054 0.03)
(0.09 0.066 0.03)
(0.09 0.006 0.042)
(0.09 0.018 0.042)
(0.09 0.03 0.042)
(0.09 0.042 0.042)
(0.09 0.054 0.042)
(0.09 0.066 0.042)
(0.09 0.006 0.054)
(0.09 0.018 0.054)
(0.09 0.03 0.054)
(0.09 0.042 0.054)
(0.09 0.054 0.054)
(0.09 0.066 0.054)
(0.09 0.006 0.066)
(0.09 0.018 0.066)
(0.09 0.03 0.066)
(0.09 0.042 0.066)
(0.09 0.054 0.066)
(0.09 0.066 0.066)
(0.102 0.006 0.006)
(0.102 0.018 0.006)
(0.102 0.03 0.006)
(0.102 0.042 0.006)
(0.102 0.054 0.006)
(0.102 0.066 0.006)
(0.102 0.006 0.018)
(0.102 0.018 0.018)
(0.102 0.03 0.018)
(0.102 0.042 0.018)
(0.102 0.054 0.018)
(0.102 0.066 0.018)
(0.102 0.006 0.03)
(0.102 0.018 0.03)
(0.102 0.03 0.03)
(0.102 0.042 0.03)
(0.102 0.054 0.03)
(0.102 0.066 0.03)
(0.102 0.006 0.042)
(0.102 0.018 0.042)
(0.102 0.03 0.042)
(0.102 0.042 0.042)
(0.102 0.054 0.042)
(0.102 0.066 0.042)
(0.102 0.006 0.054)
(0.102 0.018 0.054)
(0.102 0.03 0.054)
(0.102 0.042 0.054)
(0.102 0.054 0.054)
(0.102 0.066 0.054)
(0.102 0.006 0.066)
(0.102 0.018 0.066)
(0.102 0.03 0.066)
(0.102 0.042 0.066)
(0.102 0.054 0.066)
(0.102 0.066 0.066)
(0.114 0.006 0.006)
(0.114 0.018 0.006)
(0.114 0.03 0.006)
(0.114 0.042 0.006)
(0.114 0.054 0.006)
(0.114 0.066 0.006)
(0.114 0.006 0.018)
(0.114 0.018 0.018)
(0.114 0.03 0.018)
(0.114 0.042 0.018)
(0.114 0.054 0.018)
(0.114 0.066 0.018)
(0.114 0.006 0.03)
(0.114 0.018 0.03)
(0.114 0.03 0.03)
(0.114 0.042 0.03)
(0.114 0.054 0.03)
(0.114 0.066 0.03)
(0.114 0.006 0.042)
(0.114 0.018 0.042)
(0.114 0.03 0.042)
(0.114 0.042 0.042)
(0.114 0.054 0.042)
(0.114 0.066 0.042)
(0.114 0.006 0.054)
(0.114 0.018 0.054)
(0.114 0.03 0.054)
(0.114 0.042 0.054)
(0.114 0.054 0.054)
(0.114 0.066 0.054)
(0.114 0.006 0.066)
(0.114 0.018 0.066)
(0.114 0.03 0.066)
(0.114 0.042 0.066)
(0.114 0.054 0.066)
(0.114 0.066 0.066)
(0.126 0.006 0.006)
(0.126 0.018 0.006)
(0.126 0.03 0.006)
(0.126 0.042 0.006)
(0.126 0.054 0.006)
(0.126 0.066 0.006)
(0.126 0.006 0.018)
(0.126 0.018 0.018)
(0.126 0.03 0.018)
(0.126 0.042 0.018)
(0.126 0.054 0.018)
(0.126 0.066 0.018)
(0.126 0.006 0.03)
(0.126 0.018 0.03)
(0.126 0.03 0.03)
(0.126 0.042 0.03)
(0.126 0.054 0.03)
(0.126 0.066 0.03)
(0.126 0.006 0.042)
(0.126 0.018 0.042)
(0.126 0.03 0.042)
(0.126 0.042 0.042)
(0.126 0.054 0.042)
(0.126 0.066 0.042)
(0.126 0.006 0.054)
(0.126 0.018 0.054)
(0.126 0.03 0.054)
(0.126 0.042 0.054)
(0.126 0.054 0.054)
(0.126 0.066 0.054)
(0.126 0.006 0.066)
(0.126 0.018 0.066)
(0.126 0.03 0.066)
(0.126 0.042 0.066)
(0.126 0.054 0.066)
(0.126 0.066 0.066)
)
// ************************************************************************* //
