/*--------------------------------*- C++ -*----------------------------------*\
| =========                 |                                                 |
| \\      /  F ield         | OpenFOAM: The Open Source CFD Toolbox           |
|  \\    /   O peration     | Version:  4.0                                   |
|   \\  /    A nd           | Web:      www.OpenFOAM.org                      |
|    \\/     M anipulation  |                                                 |
\*---------------------------------------------------------------------------*/
FoamFile
{
    version     2.0;
    format      ascii;
    class       dictionary;
    location    "system";
    object      controlDict;
}
// * * * * * * * * * * * * * * * * * * * * * * * * * * * * * * * * * * * * * //

application     coalChemistryFoam;

startFrom       latestTime;//startTime;//

startTime       latestTime;//37.2;//

stopAt          endTime;//noWriteNow;//endTime;//writeNow;//

endTime         1000;

deltaT          0.001;

writeControl    adjustableRunTime;

writeInterval   2; 

purgeWrite      0;

writeFormat     ascii;

writePrecision  10;

writeCompression off;

timeFormat      general;

timePrecision   6;

runTimeModifiable true;

adjustTimeStep  no;

maxCo           1;

maxDeltaT       1;


// ************************************************************************* //3333333333333333333333
